/*---------------------------------------------------------------------------*\
| =========                 |                                                 |
| \\      /  F ield         | OpenFOAM: The Open Source CFD Toolbox           |
|  \\    /   O peration     | Version:  1.4                                   |
|   \\  /    A nd           | Web:      http://www.openfoam.org               |
|    \\/     M anipulation  |                                                 |
\*---------------------------------------------------------------------------*/

FoamFile
{
    version         2.0;
    format          ascii;

    root            "";
    case            "";
    instance        "";
    local           "";

    class           volScalarField;
    object          alphaSgs;
}

// * * * * * * * * * * * * * * * * * * * * * * * * * * * * * * * * * * * * * //


dimensions      [1 -1 -1 0 0 0 0];

internalField   uniform 0;

boundaryField
{
    wall           
    {
        type            zeroGradient;
        //type            alphaSgsWallFunction;
        //type            fixedValue;
        //value		uniform 0;
    }
    outlet      
    {
        type            zeroGradient;
    }
    ground           
    {
        type            zeroGradient;
    }
    frontAndBack
    {
        type            cyclic;
    }
    side
    {
        type            zeroGradient;
    }
    sides
    {
        type            cyclic;
    }

    burner          
    {
        type            zeroGradient;
    }
    region0_to_pyrolysisRegion_coupledWall
    {
        //type            zeroGradient;
        //type            alphaSgsWallFunction;
        type            fixedValue;
        value		uniform 0;
    }

}


// ************************************************************************* //
