/*--------------------------------*- C++ -*----------------------------------*\
| =========                 |                                                 |
| \\      /  F ield         | OpenFOAM: The Open Source CFD Toolbox           |
|  \\    /   O peration     | Version:  1.6                                   |
|   \\  /    A nd           | Web:      http://www.OpenFOAM.org               |
|    \\/     M anipulation  |                                                 |
\*---------------------------------------------------------------------------*/
FoamFile
{
    version     2.0;
    format      ascii;
    class       volScalarField;
    location    "0";
    object      O2;
}
// * * * * * * * * * * * * * * * * * * * * * * * * * * * * * * * * * * * * * //

dimensions      [0 0 0 0 0 0 0];

internalField   uniform 0.23301;

boundaryField
{
    fuel
    {
        type            fixedValue;
        value           uniform 0.0;
    }
    air
    {
        type            fixedValue;
        value           uniform 0.23301;
    }
    outlet
    {
        type            zeroGradient;
/*
        type            inletOutlet;
        inletValue      uniform 0.23301;
        value           uniform 0.23301;
*/
    }
    frontAndBack
    {
        type            empty;
    }
}


// ************************************************************************* //
