/*---------------------------------------------------------------------------*\
| =========                 |                                                 |
| \\      /  F ield         | OpenFOAM: The Open Source CFD Toolbox           |
|  \\    /   O peration     | Version:  1.4                                   |
|   \\  /    A nd           | Web:      http://www.openfoam.org               |
|    \\/     M anipulation  |                                                 |
\*---------------------------------------------------------------------------*/

FoamFile
{
    version         2.0;
    format          ascii;

    root            "";
    case            "";
    instance        "";
    local           "";

    class           volScalarField;
    object          T;
}

// * * * * * * * * * * * * * * * * * * * * * * * * * * * * * * * * * * * * * //


dimensions      [0 0 0 1 0 0 0];

internalField   uniform 293;

boundaryField
{
    wallHot           
    {
        type            fixedValue;
        value           uniform 310;
    }

    up          
    {
	type		inletOutlet;
	inletValue	uniform 293;
	value		uniform 293;
    }

    down           
    {
	type		inletOutlet;
	inletValue	uniform 293;
	value		uniform 293;
    }

    cold          
    {
	type		inletOutlet;
	inletValue	uniform 293;
	value		uniform 293;
    }

    sides1    
    {
        type            cyclic;
	value		uniform 293;
    }

}


// ************************************************************************* //
