/*--------------------------------*- C++ -*----------------------------------*\
| =========                 |                                                 |
| \\      /  F ield         | OpenFOAM: The Open Source CFD Toolbox           |
|  \\    /   O peration     | Version:  1.6                                   |
|   \\  /    A nd           | Web:      www.OpenFOAM.org                      |
|    \\/     M anipulation  |                                                 |
\*---------------------------------------------------------------------------*/
FoamFile
{
    version     2.0;
    format      ascii;
    class       dictionary;
    location    "constant";
    object      radiationProperties;
}
// * * * * * * * * * * * * * * * * * * * * * * * * * * * * * * * * * * * * * //

radiation       on;
//radiation       off;

radiationModel  fvDOM;
//radiationModel  none;

noRadiation
{
}

P1Coeffs
{
}

fvDOMCoeffs
{
    nPhi    4;          // azimuthal angles in PI/2 on X-Y.(from Y to X)
    nTheta  0;          // polar angles in PI (from Z to X-Y plane)
    convergence 1e-3;   // convergence criteria for radiation iteration
    maxIter 1;          // maximum number of iterations
}

// Number of flow iterations per radiation iteration
solverFreq 100000;

absorptionEmissionModel greyMeanAbsorptionEmission;

constantAbsorptionEmissionCoeffs
{
    a               a [ 0 -1 0 0 0 0 0 ] 0.01;
    e               e [ 0 -1 0 0 0 0 0 ] 0;
    E               E [ 1 -1 -3 0 0 0 0 ] 0;
}

greyMeanAbsorptionEmissionCoeffs
{
    lookUpTableFileName     "SpeciesTable";

    EhrrCoeff                0.2;
}

scatterModel    constantScatter;

constantScatterCoeffs
{
    sigma           sigma [ 0 -1 0 0 0 0 0 ] 0;
    C               C [ 0 0 0 0 0 0 0 ] 0;
}


// ************************************************************************* //
